<?xml version="1.0" encoding="UTF-8"?>
<configuration>
    <input>
        <net-file value="intersection.net.xml"/>
        <route-files value="intersection.rou.xml"/>
    </input>
    
    <time>
        <begin value="0"/>
        <end value="3600"/>
        <step-length value="1"/>
    </time>
    
    <processing>
        <time-to-teleport value="-1"/>
    </processing>
    
    <report>
        <verbose value="true"/>
        <no-step-log value="true"/>
    </report>
</configuration>
